$ YCRM ASDL 
$ NASTRAN input file from PARAMATERIC MODEL BUILDER 
$ CREATED BY YPARK 
$ This model is built based on NASA Common Research model 
$ NASTRAN COMPATIABILITY with Small format 
$ Linear static analysis 
SOL 101 
CEND 
ECHO = NONE 
SUBCASE 1 
   SUBTITLE=Default 
   SPC = 2 
   LOAD = 2 
   DISPLACEMENT(SORT1,REAL)=ALL 
   SPCFORCES(SORT1,REAL)=ALL 
   STRESS(SORT1,REAL,VONMISES)=ALL 
BEGIN BULK 
$ Direct Text Input for Bulk Data 
PARAM    POST    0 
PARAM   PRTMAXIM YES 
$ Elements and Element Properties for region : stringer_lower 
PBARL    1       1               CHAN 
        1.      1.8     .1      .1 
$ Pset: "stringer_lower" will be imported as: "pbarl.1" 
CBAR     20000   1       5446    5445    0.      0.     1.
CBAR     20001   1       5445    5444    0.      0.     1.
CBAR     20002   1       5444    5443    0.      0.     1.
CBAR     20003   1       5443    5412    0.      0.     1.
CBAR     20004   1       5412    5456    0.      0.     1.
CBAR     20005   1       5456    5454    0.      0.     1.
CBAR     20006   1       5454    5452    0.      0.     1.
CBAR     20007   1       5452    25      0.      0.     1.
CBAR     20008   1       25      1501    0.      0.     1.
CBAR     20009   1       1501    1499    0.      0.     1.
CBAR     20010   1       1499    1497    0.      0.     1.
CBAR     20011   1       1497    1495    0.      0.     1.
CBAR     20012   1       1495    1493    0.      0.     1.
CBAR     20013   1       1493    1491    0.      0.     1.
CBAR     20014   1       1491    1489    0.      0.     1.
CBAR     20015   1       1489    1443    0.      0.     1.
CBAR     20016   1       1443    1441    0.      0.     1.
CBAR     20017   1       1441    1439    0.      0.     1.
CBAR     20018   1       1439    1437    0.      0.     1.
CBAR     20019   1       1437    1435    0.      0.     1.
$ ... 2327 like lines cut
$ Elements and Element Properties for region : stringer_upper 
PBARL    2       1               Z 
        1.      .1      1.6     1.8 
$ Pset: "stringer_upper" will be imported as: "pbarl.2" 
CBAR     10000   2       5471    5470    0.      0.     1.
CBAR     10001   2       5470    5469    0.      0.     1.
CBAR     10002   2       5469    5468    0.      0.     1.
CBAR     10003   2       5468    5416    0.      0.     1.
CBAR     10004   2       5416    5475    0.      0.     1.
CBAR     10005   2       5475    5476    0.      0.     1.
CBAR     10006   2       5476    5477    0.      0.     1.
CBAR     10007   2       5477    125     0.      0.     1.
CBAR     10008   2       125     1068    0.      0.     1.
CBAR     10009   2       1068    1067    0.      0.     1.
CBAR     10010   2       1067    1066    0.      0.     1.
CBAR     10011   2       1066    1009    0.      0.     1.
CBAR     10012   2       1009    1008    0.      0.     1.
CBAR     10013   2       1008    1007    0.      0.     1.
CBAR     10014   2       1007    1006    0.      0.     1.
CBAR     10015   2       1006    960     0.      0.     1.
CBAR     10016   2       960     959     0.      0.     1.
CBAR     10017   2       959     958     0.      0.     1.
CBAR     10018   2       958     957     0.      0.     1.
CBAR     10019   2       957     956     0.      0.     1.
$ ... 2327 like lines cut
$ SHELL PROPERTIES bulk started 
$ CQUAD4 and CTRIA bulk started 
PSHELL   3       2      0.90385  2               2       
CQUAD4   1177    3       4888    2488    2486    4889   
PSHELL   4       2      0.87692  2               2       
CQUAD4   1178    4       4892    4594    4595    4893
PSHELL   5       2      1.20000  2               2       
CQUAD4   5227    5       4842    129     3029    4843
PSHELL   6       2      1.20000  2               2       
CQUAD4   5228    6       4843    3029    3028    4844
PSHELL   7       2      1.20000  2               2       
CQUAD4   5229    7       4844    3028    3027    4845
PSHELL   8       2      1.20000  2               2       
CQUAD4   5230    8       4845    3027    3023    4846
PSHELL   9       2      1.17308  2               2       
CQUAD4   5231    9       4846    3023    3022    4847
PSHELL   10      2      1.17308  2               2       
CQUAD4   5232    10      4847    3022    3021    4848
PSHELL   11      2      1.17308  2               2       
CQUAD4   5233    11      4848    3021    3020    4849
PSHELL   12      2      1.17308  2               2       
CQUAD4   5234    12      4849    3020    2856    4850
PSHELL   13      2      1.14615  2               2       
CQUAD4   5235    13      4850    2856    2854    4851
PSHELL   14      2      1.14615  2               2       
CQUAD4   5236    14      4851    2854    2852    4852
PSHELL   15      2      1.14615  2               2       
CQUAD4   5237    15      4852    2852    2850    4853
PSHELL   16      2      1.14615  2               2       
CQUAD4   5238    16      4853    2850    2848    4854
PSHELL   17      2      1.11923  2               2       
CQUAD4   5239    17      4854    2848    2846    4855
PSHELL   18      2      1.11923  2               2       
CQUAD4   5240    18      4855    2846    2844    4856
PSHELL   19      2      1.11923  2               2       
CQUAD4   5241    19      4856    2844    2842    4857
PSHELL   20      2      1.11923  2               2       
CQUAD4   5242    20      4857    2842    2840    4858
PSHELL   21      2      1.09231  2               2       
CQUAD4   5243    21      4858    2840    2838    4859
PSHELL   22      2      1.09231  2               2       
CQUAD4   5244    22      4859    2838    2836    4860
$ ... 1241 like lines cut
CTRIA3   27      643     4308    6193    6194        
PSHELL   644     3      0.12000  3               3       
CTRIA3   28      644     4326    6253    6254        
PSHELL   645     3      0.12000  3               3       
CTRIA3   57      645     4299    6788    6789        
PSHELL   646     3      0.12000  3               3       
CTRIA3   58      646     4312    6848    6850        
PSHELL   647     3      0.12000  3               3       
CQUAD4   1295    647     6133    1318    1317    4782
PSHELL   648     3      0.12000  3               3       
CQUAD4   1296    648     6134    6133    4782    4794
PSHELL   649     3      0.12000  3               3       
CQUAD4   1297    649     6135    6134    4794    4783
PSHELL   650     3      0.12000  3               3       
CQUAD4   1298    650     384     6234    6231    380 
PSHELL   651     3      0.12000  3               3       
CQUAD4   1299    651     6235    1714    1713    6232
PSHELL   652     3      0.12000  3               3       
CQUAD4   1300    652     6236    6235    6232    6233
PSHELL   653     3      0.12000  3               3       
CQUAD4   1301    653     6237    6236    6233    6234
PSHELL   654     3      0.12000  3               3       
CQUAD4   1302    654     388     6237    6234    384 
PSHELL   655     3      0.12000  3               3       
CQUAD4   1303    655     6238    1715    1714    6235
PSHELL   656     3      0.12000  3               3       
CQUAD4   1304    656     6239    6238    6235    6236
PSHELL   657     3      0.12000  3               3       
CQUAD4   1305    657     6240    6239    6236    6237
PSHELL   658     3      0.12000  3               3       
CQUAD4   1306    658     392     6240    6237    388 
PSHELL   659     3      0.12000  3               3       
CQUAD4   1307    659     6241    1716    1715    6238
PSHELL   660     3      0.12000  3               3       
CQUAD4   1308    660     6242    6241    6238    6239
PSHELL   661     3      0.12000  3               3       
CQUAD4   1309    661     6243    6242    6239    6240
PSHELL   662     3      0.12000  3               3       
CQUAD4   1310    662     6329    6328    6326    6327
PSHELL   663     3      0.12000  3               3       
CQUAD4   1311    663     4131    6329    6327    4127
PSHELL   664     3      0.12000  3               3       
CQUAD4   1312    664     6330    2965    2964    6328
PSHELL   665     3      0.12000  3               3       
CQUAD4   1313    665     6331    6330    6328    6329
PSHELL   666     3      0.12000  3               3       
CQUAD4   1314    666     4119    6331    6329    4131
$ ... 3483 like lines cut
CTRIA3   1       2408    5639    5630    5640        
PSHELL   2409    1      1.05000  1               1       
CTRIA3   2       2409    5631    5620    5632        
PSHELL   2410    1      1.00897  1               1       
CTRIA3   6       2410    1926    1921    1925        
PSHELL   2411    1      1.05000  1               1       
CTRIA3   9       2411    2       1       5750        
PSHELL   2412    1      1.05000  1               1       
CTRIA3   12      2412    5662    5652    5713        
PSHELL   2413    1      1.05000  1               1       
CTRIA3   23      2413    5665    5660    5666        
PSHELL   2414    1      1.05000  1               1       
CTRIA3   24      2414    5654    5716    5655        
PSHELL   2415    1      1.05000  1               1       
CTRIA3   25      2415    5643    5638    5644        
PSHELL   2416    1      1.05000  1               1       
CTRIA3   26      2416    5436    5438    5714        
PSHELL   2417    1      0.98846  1               1       
CTRIA3   31      2417    1438    1437    1435        
PSHELL   2418    1      0.94744  1               1       
CTRIA3   32      2418    1954    1950    1953        
PSHELL   2419    1      0.90641  1               1       
CTRIA3   33      2419    1287    1291    1208        
PSHELL   2420    1      0.86538  1               1       
CTRIA3   34      2420    1119    1124    1123        
PSHELL   2421    1      0.88590  1               1       
CTRIA3   35      2421    1978    1974    1977        
PSHELL   2422    1      0.70128  1               1       
CTRIA3   36      2422    3004    2991    3003        
PSHELL   2423    1      0.70128  1               1       
CTRIA3   37      2423    2835    2834    2832        
PSHELL   2424    1      0.55769  1               1       
CTRIA3   38      2424    2487    2486    2484        
PSHELL   2425    1      0.57821  1               1       
CTRIA3   39      2425    2533    2532    2531        
PSHELL   2426    1      0.43462  1               1       
CTRIA3   40      2426    2272    2267    2271        
PSHELL   2427    1      0.41410  1               1       
CTRIA3   41      2427    2195    2194    2192        
PSHELL   2428    1      0.33205  1               1       
CTRIA3   42      2428    2066    2065    2064        
PSHELL   2429    1      0.31154  1               1       
CTRIA3   43      2429    5975    5886    5887        
PSHELL   2430    1      0.84487  1               1       
CTRIA3   59      2430    1986    1592    1985        
PSHELL   2431    1      0.84487  1               1       
CQUAD4   924     2431    1150    1154    1153    1149
PSHELL   2432    1      0.84487  1               1       
CQUAD4   925     2432    1151    1155    1154    1150
PSHELL   2433    1      0.84487  1               1       
CQUAD4   926     2433    1152    1156    1103    1098
PSHELL   2434    1      0.84487  1               1       
CQUAD4   927     2434    1153    1157    1156    1152
PSHELL   2435    1      0.84487  1               1       
CQUAD4   928     2435    1154    1158    1157    1153
PSHELL   2436    1      0.84487  1               1       
CQUAD4   929     2436    1155    1159    1158    1154
PSHELL   2437    1      0.84487  1               1       
CQUAD4   930     2437    1156    1160    1108    1103
PSHELL   2438    1      0.86538  1               1       
CQUAD4   931     2438    1187    1191    1190    1186
PSHELL   2439    1      0.88590  1               1       
CQUAD4   932     2439    1235    1234    1226    1227
PSHELL   2440    1      0.88590  1               1       
CQUAD4   933     2440    1239    1238    1230    1231
PSHELL   2441    1      0.96795  1               1       
CQUAD4   934     2441    1404    1403    1394    1395
PSHELL   2442    1      0.96795  1               1       
CQUAD4   935     2442    1408    1407    1398    1399
PSHELL   2443    1      0.98846  1               1       
CQUAD4   936     2443    1478    1477    1469    1470
PSHELL   2444    1      0.98846  1               1       
CQUAD4   937     2444    1482    1481    1473    1474
PSHELL   2445    1      0.86538  1               1       
CQUAD4   938     2445    1654    1172    1171    1653
PSHELL   2446    1      0.88590  1               1       
CQUAD4   939     2446    1658    1657    1651    1647
PSHELL   2447    1      0.94744  1               1       
CQUAD4   940     2447    1770    1769    1761    1762
PSHELL   2448    1      0.94744  1               1       
CQUAD4   941     2448    1774    1773    1765    1766
PSHELL   2449    1      1.02949  1               1       
CQUAD4   942     2449    1900    1901    10      11  
PSHELL   2450    1      1.02949  1               1       
CQUAD4   943     2450    6       7       1904    1905
$ ... 231 like lines cut
CTRIA3   1289    2566    2031    2034    2033        
PSHELL   2567    1      0.80385  1               1       
CQUAD4   1290    2567    1104    127     4711    2062
PSHELL   2568    1      0.80385  1               1       
CQUAD4   1291    2568    2062    4711    4712    2061
PSHELL   2569    1      0.80385  1               1       
CTRIA3   1292    2569    2061    4712    4713        
PSHELL   2570    1      1.00897  1               1       
CQUAD4   1395    2570    1921    1916    1915    1925
PSHELL   2571    1      0.90641  1               1       
CQUAD4   1396    2571    1282    1287    1208    1209
PSHELL   2572    1      0.86538  1               1       
CQUAD4   1397    2572    1114    1119    1123    1113
PSHELL   2573    1      0.55769  1               1       
CQUAD4   1398    2573    2494    2487    2484    2454
PSHELL   2574    1      0.57821  1               1       
CQUAD4   1399    2574    2532    2540    2529    2531
PSHELL   2575    1      0.43462  1               1       
CQUAD4   1400    2575    2267    2256    2229    2271
PSHELL   2576    1      1.05000  1               1       
CQUAD4   1403    2576    5613    5429    5651    5650
PSHELL   2577    1      0.82436  1               1       
CQUAD4   1808    2577    1070    1075    1074    1069
PSHELL   2578    1      0.82436  1               1       
CQUAD4   1809    2578    1071    1076    1075    1070
PSHELL   2579    1      0.82436  1               1       
CQUAD4   1810    2579    1072    1077    1076    1071
PSHELL   2580    1      0.82436  1               1       
CQUAD4   1811    2580    1073    1078    1077    1072
PSHELL   2581    1      0.82436  1               1       
CQUAD4   1812    2581    1075    1080    1079    1074
PSHELL   2582    1      0.82436  1               1       
CQUAD4   1813    2582    1076    1081    1080    1075
PSHELL   2583    1      0.82436  1               1       
CQUAD4   1814    2583    1077    1082    1081    1076
PSHELL   2584    1      0.82436  1               1       
CQUAD4   1815    2584    1078    1083    1082    1077
PSHELL   2585    1      0.82436  1               1       
CQUAD4   1816    2585    1080    1085    1084    1079
PSHELL   2586    1      0.82436  1               1       
CQUAD4   1817    2586    1081    1086    1085    1080
PSHELL   2587    1      0.82436  1               1       
CQUAD4   1818    2587    1082    1087    1086    1081
PSHELL   2588    1      0.82436  1               1       
CQUAD4   1819    2588    1083    1088    1087    1082
PSHELL   2589    1      0.82436  1               1       
CQUAD4   1820    2589    1085    1090    1089    1084
$ ... 55 like lines cut
CTRIA3   1848    2617    1110    1130    1131        
PSHELL   2618    1      0.84487  1               1       
CQUAD4   1849    2618    1132    1136    1078    1073
PSHELL   2619    1      0.84487  1               1       
CQUAD4   1850    2619    1133    1137    1136    1132
PSHELL   2620    1      0.84487  1               1       
CQUAD4   1851    2620    1134    1138    1137    1133
PSHELL   2621    1      0.84487  1               1       
CQUAD4   1852    2621    1135    1139    1138    1134
PSHELL   2622    1      0.84487  1               1       
CQUAD4   1853    2622    1136    1140    1083    1078
PSHELL   2623    1      0.84487  1               1       
CQUAD4   1854    2623    1137    1141    1140    1136
PSHELL   2624    1      0.84487  1               1       
CQUAD4   1855    2624    1138    1142    1141    1137
PSHELL   2625    1      0.84487  1               1       
CQUAD4   1856    2625    1139    1143    1142    1138
PSHELL   2626    1      0.84487  1               1       
CQUAD4   1857    2626    1140    1144    1088    1083
PSHELL   2627    1      0.84487  1               1       
CQUAD4   1858    2627    1141    1145    1144    1140
PSHELL   2628    1      0.84487  1               1       
CQUAD4   1859    2628    1142    1146    1145    1141
PSHELL   2629    1      0.84487  1               1       
CQUAD4   1860    2629    1143    1147    1146    1142
PSHELL   2630    1      0.84487  1               1       
CQUAD4   1861    2630    1144    1148    1093    1088
PSHELL   2631    1      0.84487  1               1       
CQUAD4   1862    2631    1145    1149    1148    1144
PSHELL   2632    1      0.84487  1               1       
CQUAD4   1863    2632    1146    1150    1149    1145
PSHELL   2633    1      0.84487  1               1       
CQUAD4   1864    2633    1147    1151    1150    1146
PSHELL   2634    1      0.84487  1               1       
CQUAD4   1865    2634    1148    1152    1098    1093
PSHELL   2635    1      0.84487  1               1       
CQUAD4   1866    2635    1149    1153    1152    1148
PSHELL   2636    1      0.84487  1               1       
CQUAD4   1867    2636    1157    1161    1160    1156
PSHELL   2637    1      0.84487  1               1       
CQUAD4   1868    2637    1158    1162    1161    1157
$ ... 3959 like lines cut
CTRIA3   7       4617    5837    5786    5836        
PSHELL   4618    4      0.51410  4               4       
CTRIA3   8       4618    3365    3360    3364        
PSHELL   4619    4      1.15000  4               4       
CTRIA3   10      4619    101     102     5784        
PSHELL   4620    4      1.15000  4               4       
CTRIA3   16      4620    5534    5676    5677        
PSHELL   4621    4      1.15000  4               4       
CTRIA3   17      4621    5674    5684    5685        
PSHELL   4622    4      1.15000  4               4       
CTRIA3   18      4622    5682    5688    5689        
PSHELL   4623    4      1.15000  4               4       
CTRIA3   19      4623    5442    5437    5532        
PSHELL   4624    4      1.15000  4               4       
CTRIA3   20      4624    5525    5698    5699        
PSHELL   4625    4      1.15000  4               4       
CTRIA3   21      4625    5696    5707    5708        
PSHELL   4626    4      1.15000  4               4       
CTRIA3   22      4626    5705    5711    5712        
PSHELL   4627    4      1.10897  4               4       
CTRIA3   44      4627    547     552     551         
PSHELL   4628    4      1.04744  4               4       
CTRIA3   45      4628    470     474     364         
PSHELL   4629    4      0.98590  4               4       
CTRIA3   46      4629    305     309     295         
PSHELL   4630    4      0.94487  4               4       
CTRIA3   47      4630    143     142     140         
PSHELL   4631    4      0.80128  4               4       
CTRIA3   48      4631    3977    3982    3981        
PSHELL   4632    4      0.53462  4               4       
CTRIA3   49      4632    3370    3375    3374        
PSHELL   4633    4      0.43205  4               4       
CTRIA3   50      4633    3183    3187    4533        
PSHELL   4634    4      0.65769  4               4       
CTRIA3   51      4634    3672    3667    3671        
PSHELL   4635    4      0.80128  4               4       
CTRIA3   52      4635    4036    4031    4035        
PSHELL   4636    4      0.96538  4               4       
CTRIA3   53      4636    704     703     673         
PSHELL   4637    4      1.00641  4               4       
CTRIA3   54      4637    824     820     778         
PSHELL   4638    4      1.08846  4               4       
CTRIA3   55      4638    957     962     956         
PSHELL   4639    4      0.67821  4               4       
CTRIA3   60      4639    3720    3724    3629        
PSHELL   4640    4      0.92436  4               4       
CQUAD4   61      4640    132     137     136     131 
PSHELL   4641    4      0.92436  4               4       
CQUAD4   62      4641    133     138     137     132 
PSHELL   4642    4      0.92436  4               4       
CQUAD4   63      4642    134     139     138     133 
PSHELL   4643    4      0.92436  4               4       
CQUAD4   64      4643    139     134     135     140 
PSHELL   4644    4      0.94487  4               4       
CQUAD4   65      4644    142     143     145     144 
PSHELL   4645    4      0.94487  4               4       
CQUAD4   66      4645    144     145     147     146 
PSHELL   4646    4      0.94487  4               4       
CQUAD4   67      4646    146     147     149     148 
PSHELL   4647    4      0.92436  4               4       
CQUAD4   68      4647    157     132     131     150 
PSHELL   4648    4      0.92436  4               4       
CQUAD4   69      4648    158     157     150     151 
PSHELL   4649    4      0.92436  4               4       
CQUAD4   70      4649    159     158     151     152 
PSHELL   4650    4      0.92436  4               4       
CQUAD4   71      4650    160     159     152     153 
PSHELL   4651    4      0.92436  4               4       
CQUAD4   72      4651    161     160     153     154 
PSHELL   4652    4      0.92436  4               4       
CQUAD4   73      4652    162     161     154     155 
PSHELL   4653    4      0.92436  4               4       
CQUAD4   74      4653    163     162     155     156 
PSHELL   4654    4      0.92436  4               4       
CQUAD4   75      4654    164     133     132     157 
PSHELL   4655    4      0.92436  4               4       
CQUAD4   76      4655    165     164     157     158 
PSHELL   4656    4      0.92436  4               4       
CQUAD4   77      4656    166     165     158     159 
PSHELL   4657    4      0.92436  4               4       
CQUAD4   78      4657    167     166     159     160 
PSHELL   4658    4      0.92436  4               4       
CQUAD4   79      4658    168     167     160     161 
PSHELL   4659    4      0.92436  4               4       
CQUAD4   80      4659    169     168     161     162 
$ ... 4279 like lines cut
CTRIA3   6502    6799    3136    3174    3128        
PSHELL   6800    4      0.90385  4               4       
CQUAD4   6503    6800    3182    3144    156     155 
PSHELL   6801    4      0.90385  4               4       
CQUAD4   6504    6801    3174    3136    3144    3182
PSHELL   6802    4      0.90385  4               4       
CTRIA3   6505    6802    4719    3143    4720        
PSHELL   6803    4      0.90385  4               4       
CQUAD4   6506    6803    3151    4718    128     191 
PSHELL   6804    4      0.90385  4               4       
CQUAD4   6507    6804    3143    4719    4718    3151
PSHELL   6805    4      0.92436  4               4       
CTRIA3   6508    6805    4730    207     4731        
PSHELL   6806    4      0.92436  4               4       
CQUAD4   6509    6806    215     4729    126     223 
PSHELL   6807    4      0.90385  4               4       
CQUAD4   6510    6807    207     4730    4729    215 
PSHELL   6808    4      1.15000  4               4       
CQUAD4   6511    6808    5418    5416    5468    5701
PSHELL   6809    4      1.12949  4               4       
CQUAD4   7114    6809    5420    5418    5701    5690
PSHELL   6810    4      1.08846  4               4       
CQUAD4   7125    6810    551     541     542     547 
PSHELL   6811    4      1.04744  4               4       
CQUAD4   7126    6811    364     360     465     470 
PSHELL   6812    4      0.96538  4               4       
CQUAD4   7127    6812    295     291     300     305 
PSHELL   6813    4      0.92436  4               4       
CQUAD4   7128    6813    140     135     224     143 
PSHELL   6814    4      0.80128  4               4       
CQUAD4   7129    6814    3986    3977    3981    3975
PSHELL   6815    4      0.51410  4               4       
CQUAD4   7130    6815    3379    3370    3374    3346
PSHELL   6816    4      0.41154  4               4       
CQUAD4   7131    6816    3202    3183    4533    3201
PSHELL   6817    4      0.39103  4               4       
CQUAD4   7132    6817    5792    5836    5786    5791
PSHELL   6818    4      0.51410  4               4       
CQUAD4   7133    6818    3302    3364    3360    3347
PSHELL   6819    4      0.65769  4               4       
CQUAD4   7134    6819    3622    3671    3667    3662
PSHELL   6820    4      0.80128  4               4       
CQUAD4   7135    6820    3935    4035    4031    4026
PSHELL   6821    4      0.94487  4               4       
CQUAD4   7136    6821    672     673     703     711 
PSHELL   6822    4      0.65769  4               4       
CQUAD4   7690    6822    3625    3594    3630    3626
PSHELL   6823    4      0.65769  4               4       
CQUAD4   7691    6823    3626    3630    3631    3627
PSHELL   6824    4      0.63718  4               4       
CQUAD4   7692    6824    3627    3631    3632    3628
PSHELL   6825    4      0.65769  4               4       
CQUAD4   7693    6825    3716    3720    3629    3633
PSHELL   6826    2      0.45513  2               2       
CTRIA3   5       6826    824     4766    825         
PSHELL   6827    2      0.34615  2               2       
CTRIA3   56      6827    3671    4603    3672        
PSHELL   6828    2      0.37179  2               2       
CQUAD4   1165    6828    4635    3845    3844    4636
PSHELL   6829    2      0.37179  2               2       
CQUAD4   1166    6829    4636    3844    3831    4625
PSHELL   6830    2      0.37821  2               2       
CQUAD4   1167    6830    4637    4638    4642    4641
PSHELL   6831    2      0.37821  2               2       
CQUAD4   1168    6831    4638    4639    4643    4642
PSHELL   6832    2      0.37821  2               2       
CQUAD4   1169    6832    4639    4640    4644    4643
PSHELL   6833    2      0.37821  2               2       
CQUAD4   1170    6833    4640    4629    2696    4644
PSHELL   6834    2      0.37821  2               2       
CQUAD4   1171    6834    4645    4646    4638    4637
PSHELL   6835    2      0.37821  2               2       
CQUAD4   1172    6835    4646    4647    4639    4638
PSHELL   6836    2      0.39744  2               2       
CQUAD4   1173    6836    4677    4678    2842    2844
PSHELL   6837    2      0.39744  2               2       
CQUAD4   1174    6837    4681    4682    4678    4677
PSHELL   6838    2      0.42308  2               2       
CQUAD4   1175    6838    4709    4710    4713    4712
PSHELL   6839    2      0.42308  2               2       
CQUAD4   1176    6839    4716    4717    4710    4709
PSHELL   6840    2      0.45513  2               2       
CQUAD4   1293    6840    4755    4760    824     778 
PSHELL   6841    2      0.45513  2               2       
CQUAD4   1294    6841    4760    4761    4766    824 
PSHELL   6842    2      0.27564  2               2       
CQUAD4   4821    6842    4534    3226    3225    4535
PSHELL   6843    2      0.27564  2               2       
CQUAD4   4822    6843    4535    3225    3224    4536
PSHELL   6844    2      0.27564  2               2       
CQUAD4   4823    6844    4536    3224    3223    4537
PSHELL   6845    2      0.27564  2               2       
CQUAD4   4824    6845    4537    3223    3222    4538
PSHELL   6846    2      0.27564  2               2       
CQUAD4   4825    6846    4534    4535    2079    2081
PSHELL   6847    2      0.27564  2               2       
CQUAD4   4826    6847    4535    4536    2077    2079
$ ... 891 like lines cut
CTRIA3   29      7293    1944    4302    1998        
PSHELL   7294    2      0.22308  2               2       
CTRIA3   30      7294    4479    4475    4478        
PSHELL   7295    2      0.40000  2               2       
CQUAD4   1083    7295    76      4265    564     101 
PSHELL   7296    2      0.40000  2               2       
CQUAD4   1084    7296    4265    4266    563     564 
PSHELL   7297    2      0.40000  2               2       
CQUAD4   1085    7297    4266    4267    562     563 
PSHELL   7298    2      0.40000  2               2       
CQUAD4   1086    7298    4267    4268    555     562 
PSHELL   7299    2      0.40000  2               2       
CQUAD4   1087    7299    51      4269    4265    76  
PSHELL   7300    2      0.40000  2               2       
CQUAD4   1088    7300    4269    4270    4266    4265
PSHELL   7301    2      0.40000  2               2       
CQUAD4   1089    7301    4270    4271    4267    4266
PSHELL   7302    2      0.40000  2               2       
CQUAD4   1090    7302    4271    4272    4268    4267
PSHELL   7303    2      0.40000  2               2       
CQUAD4   1091    7303    26      4273    4269    51  
PSHELL   7304    2      0.40000  2               2       
CQUAD4   1092    7304    4273    4274    4270    4269
PSHELL   7305    2      0.38462  2               2       
CQUAD4   1093    7305    4297    4298    4294    4293
PSHELL   7306    2      0.38462  2               2       
CQUAD4   1094    7306    4298    4299    4295    4294
PSHELL   7307    2      0.38462  2               2       
CQUAD4   1095    7307    4291    4300    4296    4287
PSHELL   7308    2      0.38462  2               2       
CQUAD4   1096    7308    4300    4301    4297    4296
PSHELL   7309    2      0.38462  2               2       
CQUAD4   1097    7309    4301    4302    4298    4297
PSHELL   7310    2      0.38462  2               2       
CQUAD4   1098    7310    4291    1925    2000    4300
PSHELL   7311    2      0.38462  2               2       
CQUAD4   1099    7311    4300    2000    1999    4301
PSHELL   7312    2      0.36154  2               2       
CQUAD4   1100    7312    4325    4326    4322    4321
PSHELL   7313    2      0.36154  2               2       
CQUAD4   1101    7313    4312    1953    1964    4323
PSHELL   7314    2      0.36154  2               2       
CQUAD4   1102    7314    4323    1964    1963    4324
$ ... 796 like lines cut
$ Elements and Element Properties for region : stringer_spars 
PBARL    7713    4               Z 
        1.      .1      1.6     1.8 
$ Pset: "stringer_spars" will be imported as: "pbarl.7713" 
CBAR     30000   7713    5467    5466    0.      0.     1.
CBAR     30001   7713    5466    5465    0.      0.     1.
CBAR     30002   7713    5465    5464    0.      0.     1.
CBAR     30003   7713    5464    5415    0.      0.     1.
CBAR     30004   7713    5415    5472    0.      0.     1.
CBAR     30005   7713    5472    5473    0.      0.     1.
CBAR     30006   7713    5473    5474    0.      0.     1.
CBAR     30007   7713    5474    100     0.      0.     1.
CBAR     30008   7713    100     4839    0.      0.     1.
CBAR     30009   7713    4839    4840    0.      0.     1.
CBAR     30010   7713    4839    4840    0.      0.     1.
CBAR     30011   7713    4840    4841    0.      0.     1.
CBAR     30012   7713    4841    4829    0.      0.     1.
CBAR     30013   7713    4829    4830    0.      0.     1.
CBAR     30014   7713    4830    4831    0.      0.     1.
CBAR     30015   7713    4831    4832    0.      0.     1.
CBAR     30016   7713    4832    4817    0.      0.     1.
CBAR     30017   7713    4817    4818    0.      0.     1.
CBAR     30018   7713    4818    4819    0.      0.     1.
CBAR     30019   7713    4819    4820    0.      0.     1.
$ ... 548 like lines cut
$ Referenced Material Records 
$ Material Record : Al_2324_T39 
MAT1*    1              1.0508+7        3.91872+6 
*       .10041 
        53701.  53701.  53701. 
$ Material Record : Al_7050_T7451 
MAT1*    3              1.04064+7       3.90421+6 
*       .102419 
        68069.7 68069.7 68069.7 
$ Material Record : Al_7055_T7751 
MAT1*    4              1.04499+7       3.91872+6 
*       .103421 
        89114.7 89114.7 89114.7 
$ Material Record : Al_7150_T77511 
MAT1*    2              1.04499+7       3.91872+6 
*       .102419 
        79100.2 79100.2 79100.2 
$ Multipoint Constraints of the Entire Model 
$ ID conflict : the PATRAN MPC ID was 1 
RBE3     30568           10001   123456 1.       123     125     124 
         123     122     121     120     119     118     117     116 
         115     114     113     112     111     110     109     108 
         107     106     105     104     103     102     101     25 
         24      23      22      21      20      19      18      17 
         16      15      14      13      12      11      10      9 
         8       7       6       5       4       3       2       1 
$ ID conflict : the PATRAN MPC ID was 2 
RBE3     30569           10002   123456 1.       123     1009    1013 
         1017    1021    1025    1029    1033    1037    1041    1045 
         1049    1053    620     624     628     632     636     640 
         644     576     572     568     545     550     555     1929 
         1924    1919    1907    1879    1878    1877    1876    1875 
         1874    1873    1872    1555    1554    1553    1552    1551 
         1550    1549    1548    1520    1513    1506    1496    1495 
RBE3     3               10003   123456 1.       123     960     965 
         969     973     977     981     985     989     993     997 
         1001    1005    592     596     600     604     608     612 
         616     529     533     537     541     551     1925    1915 
         1911    1847    1846    1845    1844    1843    1842    1841 
         1840    1488    1487    1486    1485    1484    1483    1482 
         1481    1456    1452    1448    1444    1443 
RBE3     4               10004   123456 1.       123     956     919 
         923     927     931     935     939     943     947     951 
         955     501     505     509     513     517     521     525 
         497     493     489     481     485     1435    1434    1430 
         1418    1419    1420    1421    1422    1423    1424    1425 
         1426    1808    1809    1810    1811    1812    1813    1814 
         1815    1934    1939    1944 
$ ID conflict : the PATRAN MPC ID was 5 
RBE3     30570           10005   123456 1.       123     915     911 
         907     875     879     883     887     891     895     899 
         903     432     436     440     444     448     452     456 
         460     464     468     473     477     1317    1318    1322 
         1326    1383    1384    1385    1386    1387    1388    1389 
         1390    1776    1777    1778    1779    1780    1781    1782 
         1783    1930    1935    1940 
$ ID conflict : the PATRAN MPC ID was 6 
RBE3     30571           10006   123456 1.       123     831     835 
         839     843     847     851     855     859     863     867 
         871     404     408     412     416     420     424     428 
         372     368     360     364     1301    1302    1306    1310 
         1351    1352    1353    1354    1355    1356    1357    1358 
         1744    1745    1746    1747    1748    1749    1750    1751 
         1945    1953 
$ ID conflict : the PATRAN MPC ID was 7 
RBE3     30572           10007   123456 1.       123     827     823 
         818     786     790     794     798     802     806     810 
         814     376     380     384     388     392     396     400 
         356     352     344     348     1294    1290    1285    1273 
         1274    1275    1276    1277    1278    1279    1280    1281 
         1712    1713    1714    1715    1716    1717    1718    1719 
         1957    1961 
$ ID conflict : the PATRAN MPC ID was 8 
RBE3     30573           10008   123456 1.       123     778     782 
         746     750     754     758     762     766     770     774 
         316     320     324     328     332     336     340     299 
         303     308     312     1208    1209    1213    1238    1239 
         1240    1241    1242    1243    1244    1245    1680    1681 
         1682    1683    1684    1685    1686    1687    1965    1969 
$ ID conflict : the PATRAN MPC ID was 9 
RBE3     30574           10009   123456 1.       123     710     709 
         714     742     741     740     739     738     737     736 
         287     286     285     284     283     282     281     280 
         291     295     1127    1122    1117    1201    1197    1193 
         1189    1185    1181    1177    1173    1655    1651    1647 
         1643    1639    1635    1631    1627    1977 
$ ID conflict : the PATRAN MPC ID was 10 
RBE3     30575           10010   123456 1.       123     673     672 
         701     700     699     698     697     696     695     255 
         254     253     252     251     250     249     248     149 
         148     1123    1113    1163    1159    1155    1151    1147 
         1143    1139    1135    1623    1619    1615    1611    1607 
         1603    1595    1981    1599 
RBE3     11              10011   123456 1.       123     126     223 
         222     221     220     219     218     217     216     184 
         183     182     181     180     179     178     135     140 
         1128    1112    1108    1103    1098    1093    1088    1083 
         1078    1073    1591    1586    1581    1576    1571    1566 
         1561    1985 
$ ID conflict : the PATRAN MPC ID was 12 
RBE3     30576           10012   123456 1.       123     128     191 
         190     189     188     187     186     185     156     155 
         154     153     152     151     150     131     136     127 
         1104    1099    1094    1089    1084    1079    1074    1069 
         1587    1582    1577    1572    1567    1562    1557    1556 
RBE3     13              10013   123456 1.       123     130     3127 
         3126    3125    3124    3123    3122    3121    3158    3157 
         3156    3155    3154    3153    3152    129     2056    2052 
         2048    2044    2040    2036    2029    2025    2021    2017 
         2013    2009    2005    2001 
RBE3     14              10014   123456 1.       123     4167    4166 
         4171    4175    4179    4191    4190    4189    4203    4202 
         4201    4207    4211    4215    4219    3023    3019    3033 
         3040    3047    3062    3058    3054    3083    3079    3075 
         3096    3103    3110    3117 
RBE3     15              10015   123456 1.       123     4159    4155 
         4151    4147    4135    4139    4143    4123    4127    4131 
         4119    4115    4111    4103    4107    2856    2857    2869 
         2881    2893    2927    2928    2929    2963    2964    2965 
         2977    2989    3002    3015 
$ ID conflict : the PATRAN MPC ID was 16 
RBE3     30577           10016   123456 1.       123     4043    4047 
         4051    4055    4059    4067    4071    4075    4079    4083 
         4087    4091    4095    4099    2848    2849    2865    2877 
         2889    2915    2916    2917    2951    2952    2953    2973 
         2985    2998    3011    4063 
$ ID conflict : the PATRAN MPC ID was 17 
RBE3     30578           10017   123456 1.       123     4039    4034 
         4029    4025    4013    4017    4021    4001    4005    4009 
         3997    3993    3989    3980    3985    2840    2841    2861 
         2873    2885    2903    2904    2905    2939    2940    2941 
         2969    2981    2994    3007 
$ ID conflict : the PATRAN MPC ID was 18 
RBE3     30579           10018   123456 1.       123     4035    3935 
         3939    3943    3947    3951    3955    3959    3963    3967 
         3971    3975    3981    2832    2794    2795    2799    2809 
         2810    2811    2821    2822    2823    2827    2831    3003 
$ ID conflict : the PATRAN MPC ID was 19 
RBE3     30580           10019   123456 1.       123     4649    3931 
         3927    3915    3919    3923    3903    3907    3911    3899 
         3887    3891    3895    4641    2746    2747    2751    2761 
         2762    2763    2773    2774    2775    2779    2783    2787 
$ ID conflict : the PATRAN MPC ID was 20 
RBE3     30581           10020   123456 1.       123     3847    3835
         3839    3843    3851    3855    3859    3863    3867    3871
         3875    3879    3883    2696    2694    2695    2703    2715
         2711    2707    2725    2726    2727    2731    2735    2739 
$ ID conflict : the PATRAN MPC ID was 21 
RBE3     30582           10021   123456 1.       123     3831    3827 
         3823    3811    3815    3819    3799    3803    3807    3795 
         3791    3783    3787    2642    2643    2647    2651    2661 
         2662    2663    2673    2674    2675    2679    2683    2687 
$ ID conflict : the PATRAN MPC ID was 22 
RBE3     30583           10022   123456 1.       123     3779    3775 
         3771    3759    3763    3767    3747    3751    3755    3743 
         3739    3731    3735    2590    2591    2595    2599    2609 
         2610    2611    2621    2622    2623    2627    2631    2635 
$ ID conflict : the PATRAN MPC ID was 23 
RBE3     30584           10023   123456 1.       123     3679    3683 
         3687    3691    3695    3699    3703    3707    3711    3715 
         3723    3727    2583    2579    2575    2569    2570    2571 
         2557    2558    2559    2547    2543    2538    2539    3719 
$ ID conflict : the PATRAN MPC ID was 24 
RBE3     30585           10024   123456 1.       123     3675    3670 
         3665    3653    3657    3661    3641    3645    3649    3637 
         3633    3629    2492    2493    2497    2501    2511    2512 
         2513    2523    2524    2525    2529    2531 
$ ID conflict : the PATRAN MPC ID was 25 
RBE3     30586           10025   123456 1.       123     3671    3622 
         3610    3614    3618    3598    3602    3606    3590    3594 
         3625    2484    2454    2455    2465    2466    2467    2477 
         2478    2479    2483    4479 
$ ID conflict : the PATRAN MPC ID was 26 
RBE3     30587           10026   123456 1.       123     4578    3550 
         3554    3558    3562    3566    3570    3574    3578    3582 
         3586    4585    2447    2441    2442    2443    2429    2430 
         2431    2419    2414    2415 
$ ID conflict : the PATRAN MPC ID was 27 
RBE3     30588           10027   123456 1.       123     3546    3506 
         3510    3514    3518    3522    3526    3530    3534    3538 
         3542    2370    2371    2375    2385    2386    2387    2397 
         2398    2399    2403    2407 
$ ID conflict : the PATRAN MPC ID was 28 
RBE3     30589           10028   123456 1.       123     3502    3498 
         3486    3490    3494    3474    3478    3482    3470    3462 
         3466    2326    2327    2331    2341    2342    2343    2353 
         2354    2355    2359    2363 
$ ID conflict : the PATRAN MPC ID was 29 
RBE3     30590           10029   123456 1.       123     3418    3422 
         3426    3430    3434    3438    3442    3446    3450    3454 
         3458    2282    2283    2287    2297    2298    2299    2309 
         2310    2311    2315    2319 
$ ID conflict : the PATRAN MPC ID was 30 
RBE3     30591           10030   123456 1.       123     3414    3410 
         3398    3402    3406    3386    3390    3394    3382    3373 
         3378    2236    2237    2241    2251    2252    2253    2263 
         2264    2265    2270    2275 
$ ID conflict : the PATRAN MPC ID was 31 
RBE3     30592           10031   123456 1.       123     3368    3363 
         3350    3354    3358    3334    3338    3342    3346    3374 
         2200    2201    2205    2215    2216    2217    2227    2228 
         2229    2271 
$ ID conflict : the PATRAN MPC ID was 32 
RBE3     30593           10032   123456 1.       123     3364    3302 
         3306    3310    3314    3318    3322    3326    3330    2192 
         2175    2171    2167    2163    2187    2183    2179    2191 
$ ID conflict : the PATRAN MPC ID was 33 
RBE3     30594           10033   123456 1.       123     3298    3286 
         3290    3294    3274    3278    3282    3266    3270    2159 
         2136    2137    2138    2139    2149    2150    2151    2155 
$ ID conflict : the PATRAN MPC ID was 34 
RBE3     30595           10034   123456 1.       123     3262    3250 
         3254    3258    3238    3242    3246    3230    3234    2089 
         2090    2103    2104    2105    2117    2118    2119    2123 
$ ID conflict : the PATRAN MPC ID was 35 
RBE3     30596           10035   123456 1.       123     3226    3211 
         3216    3221    3195    3200    3205    3186    3190    2081 
         2082    2091    2092    2093    2106    2107    2071    2072 
$ ID conflict : the PATRAN MPC ID was 36 
RBE3     30597           10036   123456 1.       123     3222    3207 
         3212    3217    3191    3196    3201    4533    2073    2074 
         5951    5952    5953    5963    5964    2064 
$ ID conflict : the PATRAN MPC ID was 37 
RBE3     30598           10037   123456 1.       123     5836    5792 
         5796    5797    5840    5847    5848    5887    5972    5973 
         5974    6023    6024    5926 
$ ID conflict : the PATRAN MPC ID was 38 
RBE3     30599           10038   123456 1.       123     5899    6125 
         6126    5855    5856    5860    5867    5895    5987    5988 
         5989    6031    6032    5934 
$ ID conflict : the PATRAN MPC ID was 39 
RBE3     30600           10039   123456 1.       123     5805    5810 
         5815    5820    5825    5830    5835    5910    5999    6000 
         6001    6039    6040    5942 
$ ID conflict : the PATRAN MPC ID was 40 
RBE3     30601           10040   123456 1.       123     5801    5806 
         5811    5816    5821    5826    5831    5918    6011    6012 
         6013    6047    6048    5943 
$ Nodes of the Entire Model 
GRID     1              1316.32 120.096 126.743
GRID     2              1308.96 122.668 126.617
GRID     3              1301.73 125.188 126.512
GRID     4              1294.44 127.73  126.43
GRID     5              1287.14 130.271 126.374
GRID     6              1279.85 132.806 126.348
GRID     7              1272.54 135.346 126.357
GRID     8              1265.26 137.873 126.402
GRID     9              1257.91 140.418 126.49
GRID     10             1250.66 142.926 126.624
GRID     11             1243.33 145.455 126.816
GRID     12             1236.06 147.96  127.068
GRID     13             1228.73 150.478 127.392
GRID     14             1221.43 152.979 127.793
GRID     15             1214.13 155.472 128.278
GRID     16             1206.83 157.956 128.854
GRID     17             1199.55 160.429 129.529
GRID     18             1192.26 162.89  130.309
GRID     19             1184.99 165.339 131.204
GRID     20             1177.72 167.772 132.219
$ ... 7128 like lines cut
$ Loads for Load Case : Default 
SPCADD   2       1 
LOAD     2       1.      1.       1      1.       3 
$ Displacement Constraints of Load Set : dis 
SPC1     1       123456  1       26      51      76      101     5438 
         5442    5446    5450    5460    5467    5471    5524    5525 
         5532    5533    5534    5620    5621    5629    5630    5632 
         5637    5638    5640    5642    5644    5652    5653    5655 
         5660    5661    5664    5666    5674    5675    5677    5682 
         5683    5685    5687    5689    5696    5697    5699    5705 
         5706    5708    5710    5712    5713    5714    5715    5716 
         5750    5784 

$ Nodal Forces of Load Set : nuit 
FORCE    1      10040    0       0.0     0.0     0.0     0.0 
$ Nodal Forces of Load Set : unit 
MOMENT   3      10040    0       1.0     0.0     0.0     1.0 
$ Referenced Coordinate Frames 
ENDDATA f02b1144 
